examples/Custom_controls_example/DSSfiles/Diamond_dss/Transformers.dss
New Transformer.1323503EB phases=1 wdg=1 bus=1323503E_T_05060.2.3 kv=4.16 kVA=38 wdg=2 bus=X_1323503E_T_05060.2 kv=0.24 kVA=38 %loadloss=0.7221 %noloadloss=.2423 XHL=1.5158 emerghkva=53.2
New Transformer.4417776EABC phases=3 wdg=1 bus=4417776E_T_05060.1.2.3 kv=4.16 kVA=45 wdg=2 bus=X_4417776E_T_05060.1.2.3 kv=0.48 kVA=45 %loadloss=0.7380 %noloadloss=.1987 XHL=1.7532 emerghkva=63
New Transformer.121642EABC phases=3 wdg=1 bus=121642E_T_05060.1.2.3 kv=4.16 kVA=25 wdg=2 bus=X_121642E_T_05060.1.2.3 kv=0.48 kVA=25 %loadloss=1.008 %noloadloss=.230 XHL=1.803 emerghkva=35
New Transformer.533712ET1A phases=1 wdg=1 bus=533712ET1_T_05060.1.2 kv=4.16 kVA=25 wdg=2 bus=X_533712ET1_T_05060.1 kv=0.24 kVA=25 %loadloss=0.7639 %noloadloss=.0851 XHL=2.1 emerghkva=35
New Transformer.4082101EC phases=1 wdg=1 bus=4082101E_T_05060.1.3 kv=4.16 kVA=25 wdg=2 bus=X_4082101E_T_05060.3 kv=0.24 kVA=25 %loadloss=0.7639 %noloadloss=.0851 XHL=2.1 emerghkva=35
New Transformer.1041675EABC phases=3 wdg=1 bus=1041675E_T_05060.1.2.3 kv=4.16 kVA=15 wdg=2 bus=X_1041675E_T_05060.1.2.3 kv=0.48 kVA=15 %loadloss=1.008 %noloadloss=.230 XHL=1.803 emerghkva=21
New Transformer.1006082EA phases=1 wdg=1 bus=1006082E_T_05060.1.2 kv=4.16 kVA=25 wdg=2 bus=X_1006082E_T_05060.1 kv=0.24 kVA=25 %loadloss=0.7639 %noloadloss=.0851 XHL=2.1 emerghkva=35
New Transformer.4160253EABC phases=3 wdg=1 bus=4160253E_T_05060.1.2.3 kv=4.16 kVA=20 wdg=2 bus=X_4160253E_T_05060.1.2.3 kv=0.48 kVA=20 %loadloss=0.7639 %noloadloss=.0851 XHL=2.1 emerghkva=28
New Transformer.1159236EB phases=1 wdg=1 bus=1159236E_T_05060.2.3 kv=4.16 kVA=25 wdg=2 bus=X_1159236E_T_05060.2 kv=0.24 kVA=25 %loadloss=0.7639 %noloadloss=.0851 XHL=2.1 emerghkva=35
New Transformer.1429043EB phases=1 wdg=1 bus=1429043E_T_05060.2.3 kv=4.16 kVA=25 wdg=2 bus=X_1429043E_T_05060.2 kv=0.24 kVA=25 %loadloss=0.7639 %noloadloss=.0851 XHL=2.1 emerghkva=35
New Transformer.P5378686B phases=1 wdg=1 bus=P5378686_T_05060.2.3 kv=4.16 kVA=75 wdg=2 bus=X_P5378686_T_05060.2 kv=0.24 kVA=75 %loadloss=0.749 %noloadloss=.171 XHL=1.773 emerghkva=105
New Transformer.1303654EB phases=1 wdg=1 bus=1303654E_T_05060.2.3 kv=4.16 kVA=25 wdg=2 bus=X_1303654E_T_05060.2 kv=0.24 kVA=25 %loadloss=1.008 %noloadloss=.230 XHL=1.803 emerghkva=35
New Transformer.4156458EC phases=1 wdg=1 bus=4156458E_T_05060.1.3 kv=4.16 kVA=38 wdg=2 bus=X_4156458E_T_05060.3 kv=0.24 kVA=38 %loadloss=0.7221 %noloadloss=.2423 XHL=1.5158 emerghkva=53.2
New Transformer.P5378763C phases=1 wdg=1 bus=P5378763_T_05060.1.3 kv=4.16 kVA=100 wdg=2 bus=X_P5378763_T_05060.3 kv=0.24 kVA=100 %loadloss=0.715 %noloadloss=.173 XHL=1.845 emerghkva=140
New Transformer.861693EA phases=1 wdg=1 bus=861693E_T_05060.1.2 kv=4.16 kVA=25 wdg=2 bus=X_861693E_T_05060.1 kv=0.24 kVA=25 %loadloss=1.008 %noloadloss=.230 XHL=1.803 emerghkva=35
New Transformer.861690EA phases=1 wdg=1 bus=861690E_T_05060.1.2 kv=4.16 kVA=50 wdg=2 bus=X_861690E_T_05060.1 kv=0.24 kVA=50 %loadloss=0.7380 %noloadloss=.1987 XHL=1.7532 emerghkva=70
New Transformer.P5378783B phases=1 wdg=1 bus=P5378783_T_05060.2.3 kv=4.16 kVA=50 wdg=2 bus=X_P5378783_T_05060.2 kv=0.24 kVA=50 %loadloss=0.811 %noloadloss=.184 XHL=1.765 emerghkva=70
New Transformer.585493HABC phases=3 wdg=1 bus=585493H_T_05060.1.2.3 kv=4.16 kVA=150 wdg=2 bus=X_585493H_T_05060.1.2.3 kv=0.48 kVA=150 %loadloss=0.6991 %noloadloss=.2298 XHL=3 emerghkva=210
New Transformer.4591398EABC phases=3 wdg=1 bus=4591398E_T_05060.1.2.3 kv=4.16 kVA=15 wdg=2 bus=X_4591398E_T_05060.1.2.3 kv=0.48 kVA=15 %loadloss=1.008 %noloadloss=.230 XHL=1.803 emerghkva=21
New Transformer.132337HA phases=1 wdg=1 bus=132337H_T_05060.1.2 kv=4.16 kVA=25 wdg=2 bus=X_132337H_T_05060.1 kv=0.24 kVA=25 %loadloss=1.008 %noloadloss=.230 XHL=1.803 emerghkva=35
New Transformer.P5378650B phases=1 wdg=1 bus=P5378650_T_05060.2.3 kv=4.16 kVA=100 wdg=2 bus=X_P5378650_T_05060.2 kv=0.24 kVA=100 %loadloss=0.7237 %noloadloss=.1524 XHL=2.1557 emerghkva=140
New Transformer.4332023EABC phases=3 wdg=1 bus=4332023E_T_05060.1.2.3 kv=4.16 kVA=25 wdg=2 bus=X_4332023E_T_05060.1.2.3 kv=0.48 kVA=25 %loadloss=0.7639 %noloadloss=.0851 XHL=2.1 emerghkva=35
New Transformer.1173075EABC phases=3 wdg=1 bus=1173075E_T_05060.1.2.3 kv=4.16 kVA=75 wdg=2 bus=X_1173075E_T_05060.1.2.3 kv=0.48 kVA=75 %loadloss=0.749 %noloadloss=.171 XHL=1.773 emerghkva=105
New Transformer.1130137EA phases=1 wdg=1 bus=1130137E_T_05060.1.2 kv=4.16 kVA=15 wdg=2 bus=X_1130137E_T_05060.1 kv=0.24 kVA=15 %loadloss=1.008 %noloadloss=.230 XHL=1.803 emerghkva=21
New Transformer.437741EC phases=1 wdg=1 bus=437741E_T_05060.1.3 kv=4.16 kVA=38 wdg=2 bus=X_437741E_T_05060.3 kv=0.24 kVA=38 %loadloss=0.7221 %noloadloss=.2423 XHL=1.5158 emerghkva=53.2
New Transformer.861689EA phases=1 wdg=1 bus=861689E_T_05060.1.2 kv=4.16 kVA=25 wdg=2 bus=X_861689E_T_05060.1 kv=0.24 kVA=25 %loadloss=0.7639 %noloadloss=.0851 XHL=2.1 emerghkva=35
New Transformer.1041678EABC phases=3 wdg=1 bus=1041678E_T_05060.1.2.3 kv=4.16 kVA=15 wdg=2 bus=X_1041678E_T_05060.1.2.3 kv=0.48 kVA=15 %loadloss=1.008 %noloadloss=.230 XHL=1.803 emerghkva=21
New Transformer.1159233EB phases=1 wdg=1 bus=1159233E_T_05060.2.3 kv=4.16 kVA=15 wdg=2 bus=X_1159233E_T_05060.2 kv=0.24 kVA=15 %loadloss=1.008 %noloadloss=.230 XHL=1.803 emerghkva=21
New Transformer.1006079EA phases=1 wdg=1 bus=1006079E_T_05060.1.2 kv=4.16 kVA=25 wdg=2 bus=X_1006079E_T_05060.1 kv=0.24 kVA=25 %loadloss=1.008 %noloadloss=.230 XHL=1.803 emerghkva=35
New Transformer.500424EABC phases=3 wdg=1 bus=500424E_T_05060.1.2.3 kv=4.16 kVA=25 wdg=2 bus=X_500424E_T_05060.1.2.3 kv=0.48 kVA=25 %loadloss=1.008 %noloadloss=.230 XHL=1.803 emerghkva=35
New Transformer.1324616EA phases=1 wdg=1 bus=1324616E_T_05060.1.2 kv=4.16 kVA=25 wdg=2 bus=X_1324616E_T_05060.1 kv=0.24 kVA=25 %loadloss=1.008 %noloadloss=.230 XHL=1.803 emerghkva=35
New Transformer.216253EC phases=1 wdg=1 bus=216253E_T_05060.1.3 kv=4.16 kVA=75 wdg=2 bus=X_216253E_T_05060.3 kv=0.24 kVA=75 %loadloss=0.749 %noloadloss=.171 XHL=1.773 emerghkva=105
New Transformer.523427EABC phases=3 wdg=1 bus=523427E_T_05060.1.2.3 kv=4.16 kVA=50 wdg=2 bus=X_523427E_T_05060.1.2.3 kv=0.48 kVA=50 %loadloss=0.811 %noloadloss=.184 XHL=1.765 emerghkva=70
New Transformer.P5448478C phases=1 wdg=1 bus=P5448478_T_05060.1.3 kv=4.16 kVA=50 wdg=2 bus=X_P5448478_T_05060.3 kv=0.24 kVA=50 %loadloss=0.7380 %noloadloss=.1987 XHL=1.7532 emerghkva=70
New Transformer.1041722EA phases=1 wdg=1 bus=1041722E_T_05060.1.2 kv=4.16 kVA=38 wdg=2 bus=X_1041722E_T_05060.1 kv=0.24 kVA=38 %loadloss=0.831 %noloadloss=.219 XHL=1.686 emerghkva=53.2
New Transformer.1429047EB phases=1 wdg=1 bus=1429047E_T_05060.2.3 kv=4.16 kVA=8 wdg=2 bus=X_1429047E_T_05060.2 kv=0.24 kVA=8 %loadloss=1.153 %noloadloss=.318 XHL=1.888 emerghkva=11.2
New Transformer.P5436258B phases=1 wdg=1 bus=P5436258_T_05060.2.3 kv=4.16 kVA=50 wdg=2 bus=X_P5436258_T_05060.2 kv=0.24 kVA=50 %loadloss=0.811 %noloadloss=.184 XHL=1.765 emerghkva=70
New Transformer.1041703EA phases=1 wdg=1 bus=1041703E_T_05060.1.2 kv=4.16 kVA=100 wdg=2 bus=X_1041703E_T_05060.1 kv=0.24 kVA=100 %loadloss=0.715 %noloadloss=.173 XHL=1.845 emerghkva=140
New Transformer.861626EA phases=1 wdg=1 bus=861626E_T_05060.1.2 kv=4.16 kVA=25 wdg=2 bus=X_861626E_T_05060.1 kv=0.24 kVA=25 %loadloss=1.008 %noloadloss=.230 XHL=1.803 emerghkva=35
New Transformer.884804EA phases=1 wdg=1 bus=884804E_T_05060.1.2 kv=4.16 kVA=10 wdg=2 bus=X_884804E_T_05060.1 kv=0.24 kVA=10 %loadloss=1.022 %noloadloss=.3221 XHL=1.707 emerghkva=14
New Transformer.861698EA phases=1 wdg=1 bus=861698E_T_05060.1.2 kv=4.16 kVA=25 wdg=2 bus=X_861698E_T_05060.1 kv=0.24 kVA=25 %loadloss=1.008 %noloadloss=.230 XHL=1.803 emerghkva=35
New Transformer.1159234EB phases=1 wdg=1 bus=1159234E_T_05060.2.3 kv=4.16 kVA=25 wdg=2 bus=X_1159234E_T_05060.2 kv=0.24 kVA=25 %loadloss=0.7639 %noloadloss=.0851 XHL=2.1 emerghkva=35
New Transformer.4403051EA phases=1 wdg=1 bus=4403051E_T_05060.1.2 kv=4.16 kVA=25 wdg=2 bus=X_4403051E_T_05060.1 kv=0.24 kVA=25 %loadloss=0.7639 %noloadloss=.0851 XHL=2.1 emerghkva=35
New Transformer.4426297EC phases=1 wdg=1 bus=4426297E_T_05060.1.3 kv=4.16 kVA=75 wdg=2 bus=X_4426297E_T_05060.3 kv=0.24 kVA=75 %loadloss=0.749 %noloadloss=.171 XHL=1.773 emerghkva=105
New Transformer.884875EA phases=1 wdg=1 bus=884875E_T_05060.1.2 kv=4.16 kVA=50 wdg=2 bus=X_884875E_T_05060.1 kv=0.24 kVA=50 %loadloss=0.811 %noloadloss=.184 XHL=1.765 emerghkva=70
New Transformer.4081667EABC phases=3 wdg=1 bus=4081667E_T_05060.1.2.3 kv=4.16 kVA=75 wdg=2 bus=X_4081667E_T_05060.1.2.3 kv=0.48 kVA=75 %loadloss=0.749 %noloadloss=.171 XHL=1.773 emerghkva=105
New Transformer.4081665EABC phases=3 wdg=1 bus=4081665E_T_05060.1.2.3 kv=4.16 kVA=75 wdg=2 bus=X_4081665E_T_05060.1.2.3 kv=0.48 kVA=75 %loadloss=0.7578 %noloadloss=.1348 XHL=2.41 emerghkva=105
New Transformer.2077628EC phases=1 wdg=1 bus=2077628E_T_05060.1.3 kv=4.16 kVA=38 wdg=2 bus=X_2077628E_T_05060.3 kv=0.24 kVA=38 %loadloss=0.7221 %noloadloss=.2423 XHL=1.5158 emerghkva=53.2
New Transformer.861694EA phases=1 wdg=1 bus=861694E_T_05060.1.2 kv=4.16 kVA=25 wdg=2 bus=X_861694E_T_05060.1 kv=0.24 kVA=25 %loadloss=0.7639 %noloadloss=.0851 XHL=2.1 emerghkva=35
New Transformer.1363411EB phases=1 wdg=1 bus=1363411E_T_05060.2.3 kv=4.16 kVA=25 wdg=2 bus=X_1363411E_T_05060.2 kv=0.24 kVA=25 %loadloss=0.7639 %noloadloss=.0851 XHL=2.1 emerghkva=35
New Transformer.1379785ET1ABC phases=3 wdg=1 bus=1379785ET1_T_05060.1.2.3 kv=4.16 kVA=50 wdg=2 bus=X_1379785ET1_T_05060.1.2.3 kv=0.48 kVA=50 %loadloss=0.7380 %noloadloss=.1987 XHL=1.7532 emerghkva=70
New Transformer.1130136EA phases=1 wdg=1 bus=1130136E_T_05060.1.2 kv=4.16 kVA=50 wdg=2 bus=X_1130136E_T_05060.1 kv=0.24 kVA=50 %loadloss=0.7380 %noloadloss=.1987 XHL=1.7532 emerghkva=70
New Transformer.300182EABC phases=3 wdg=1 bus=300182E_T_05060.1.2.3 kv=4.16 kVA=75 wdg=2 bus=X_300182E_T_05060.1.2.3 kv=0.48 kVA=75 %loadloss=0.749 %noloadloss=.171 XHL=1.773 emerghkva=105
New Transformer.P5514758B phases=1 wdg=1 bus=P5514758_T_05060.2.3 kv=4.16 kVA=75 wdg=2 bus=X_P5514758_T_05060.2 kv=0.24 kVA=75 %loadloss=0.7578 %noloadloss=.1348 XHL=2.41 emerghkva=105
New Transformer.740606EB phases=1 wdg=1 bus=740606E_T_05060.2.3 kv=4.16 kVA=50 wdg=2 bus=X_740606E_T_05060.2 kv=0.24 kVA=50 %loadloss=0.811 %noloadloss=.184 XHL=1.765 emerghkva=70
New Transformer.1992888EABC phases=3 wdg=1 bus=1992888E_T_05060.1.2.3 kv=4.16 kVA=75 wdg=2 bus=X_1992888E_T_05060.1.2.3 kv=0.48 kVA=75 %loadloss=0.749 %noloadloss=.171 XHL=1.773 emerghkva=105
New Transformer.1323366EA phases=1 wdg=1 bus=1323366E_T_05060.1.2 kv=4.16 kVA=15 wdg=2 bus=X_1323366E_T_05060.1 kv=0.24 kVA=15 %loadloss=1.008 %noloadloss=.230 XHL=1.803 emerghkva=21
New Transformer.4693285EABC phases=3 wdg=1 bus=4693285E_T_05060.1.2.3 kv=4.16 kVA=25 wdg=2 bus=X_4693285E_T_05060.1.2.3 kv=0.48 kVA=25 %loadloss=0.7639 %noloadloss=.0851 XHL=2.1 emerghkva=35
New Transformer.1172693EC phases=1 wdg=1 bus=1172693E_T_05060.1.3 kv=4.16 kVA=25 wdg=2 bus=X_1172693E_T_05060.3 kv=0.24 kVA=25 %loadloss=0.7639 %noloadloss=.0851 XHL=2.1 emerghkva=35
New Transformer.4081666EABC phases=3 wdg=1 bus=4081666E_T_05060.1.2.3 kv=4.16 kVA=50 wdg=2 bus=X_4081666E_T_05060.1.2.3 kv=0.48 kVA=50 %loadloss=0.7380 %noloadloss=.1987 XHL=1.7532 emerghkva=70
New Transformer.523423EA phases=1 wdg=1 bus=523423E_T_05060.1.2 kv=4.16 kVA=75 wdg=2 bus=X_523423E_T_05060.1 kv=0.24 kVA=75 %loadloss=0.7578 %noloadloss=.1348 XHL=2.41 emerghkva=105
New Transformer.1041682EABC phases=3 wdg=1 bus=1041682E_T_05060.1.2.3 kv=4.16 kVA=25 wdg=2 bus=X_1041682E_T_05060.1.2.3 kv=0.48 kVA=25 %loadloss=1.008 %noloadloss=.230 XHL=1.803 emerghkva=35
New Transformer.1159232EB phases=1 wdg=1 bus=1159232E_T_05060.2.3 kv=4.16 kVA=15 wdg=2 bus=X_1159232E_T_05060.2 kv=0.24 kVA=15 %loadloss=1.008 %noloadloss=.230 XHL=1.803 emerghkva=21
New Transformer.2129811EABC phases=3 wdg=1 bus=2129811E_T_05060.1.2.3 kv=4.16 kVA=75 wdg=2 bus=X_2129811E_T_05060.1.2.3 kv=0.48 kVA=75 %loadloss=0.749 %noloadloss=.171 XHL=1.773 emerghkva=105
New Transformer.4516751EABC phases=3 wdg=1 bus=4516751E_T_05060.1.2.3 kv=4.16 kVA=75 wdg=2 bus=X_4516751E_T_05060.1.2.3 kv=0.48 kVA=75 %loadloss=0.749 %noloadloss=.171 XHL=1.773 emerghkva=105
New Transformer.1323501EB phases=1 wdg=1 bus=1323501E_T_05060.2.3 kv=4.16 kVA=25 wdg=2 bus=X_1323501E_T_05060.2 kv=0.24 kVA=25 %loadloss=0.7639 %noloadloss=.0851 XHL=2.1 emerghkva=35
New Transformer.121645EABC phases=3 wdg=1 bus=121645E_T_05060.1.2.3 kv=4.16 kVA=38 wdg=2 bus=X_121645E_T_05060.1.2.3 kv=0.48 kVA=38 %loadloss=0.7221 %noloadloss=.2423 XHL=1.5158 emerghkva=53.2
New Transformer.861627EA phases=1 wdg=1 bus=861627E_T_05060.1.2 kv=4.16 kVA=25 wdg=2 bus=X_861627E_T_05060.1 kv=0.24 kVA=25 %loadloss=1.008 %noloadloss=.230 XHL=1.803 emerghkva=35
New Transformer.290907EC phases=1 wdg=1 bus=290907E_T_05060.1.3 kv=4.16 kVA=38 wdg=2 bus=X_290907E_T_05060.3 kv=0.24 kVA=38 %loadloss=0.7221 %noloadloss=.2423 XHL=1.5158 emerghkva=53.2
New Transformer.121643EABC phases=3 wdg=1 bus=121643E_T_05060.1.2.3 kv=4.16 kVA=38 wdg=2 bus=X_121643E_T_05060.1.2.3 kv=0.48 kVA=38 %loadloss=0.7221 %noloadloss=.2423 XHL=1.5158 emerghkva=53.2
New Transformer.1041704EA phases=1 wdg=1 bus=1041704E_T_05060.1.2 kv=4.16 kVA=38 wdg=2 bus=X_1041704E_T_05060.1 kv=0.24 kVA=38 %loadloss=0.831 %noloadloss=.219 XHL=1.686 emerghkva=53.2
New Transformer.1159231EB phases=1 wdg=1 bus=1159231E_T_05060.2.3 kv=4.16 kVA=15 wdg=2 bus=X_1159231E_T_05060.2 kv=0.24 kVA=15 %loadloss=1.008 %noloadloss=.230 XHL=1.803 emerghkva=21
New Transformer.4502937EC phases=1 wdg=1 bus=4502937E_T_05060.1.3 kv=4.16 kVA=75 wdg=2 bus=X_4502937E_T_05060.3 kv=0.24 kVA=75 %loadloss=0.7578 %noloadloss=.1348 XHL=2.41 emerghkva=105
New Transformer.861697EA phases=1 wdg=1 bus=861697E_T_05060.1.2 kv=4.16 kVA=15 wdg=2 bus=X_861697E_T_05060.1 kv=0.24 kVA=15 %loadloss=0.7639 %noloadloss=.0851 XHL=2.1 emerghkva=21
New Transformer.861696EA phases=1 wdg=1 bus=861696E_T_05060.1.2 kv=4.16 kVA=50 wdg=2 bus=X_861696E_T_05060.1 kv=0.24 kVA=50 %loadloss=0.7380 %noloadloss=.1987 XHL=1.7532 emerghkva=70
